M0001
  Spartan 06051216233D

 16 16  0  0  0  0  0  0  0  0999 V2000
    1.2790    0.0000   -0.4820 C   0  0  0  0  0  0  0  0  0  0  0  0
    0.7670    1.2530    0.2410 C   0  0  0  0  0  0  0  0  0  0  0  0
   -0.7670    1.2530    0.2410 C   0  0  0  0  0  0  0  0  0  0  0  0
   -1.2790    0.0000   -0.4820 C   0  0  0  0  0  0  0  0  0  0  0  0
   -0.7670   -1.2530    0.2410 C   0  0  0  0  0  0  0  0  0  0  0  0
    0.7670   -1.2530    0.2410 O   0  0  0  0  0  0  0  0  0  0  0  0
   -0.9144    0.0000   -1.5156 H   0  0  0  0  0  0  0  0  0  0  0  0
   -2.3750    0.0000   -0.4812 H   0  0  0  0  0  0  0  0  0  0  0  0
   -1.1322   -2.1478   -0.2759 H   0  0  0  0  0  0  0  0  0  0  0  0
   -1.1322   -1.2533    1.2743 H   0  0  0  0  0  0  0  0  0  0  0  0
    0.9144    0.0000   -1.5156 H   0  0  0  0  0  0  0  0  0  0  0  0
    2.3750    0.0000   -0.4812 H   0  0  0  0  0  0  0  0  0  0  0  0
    1.1322    2.1478   -0.2759 H   0  0  0  0  0  0  0  0  0  0  0  0
    1.1322    1.2533    1.2743 H   0  0  0  0  0  0  0  0  0  0  0  0
   -1.1322    2.1478   -0.2759 H   0  0  0  0  0  0  0  0  0  0  0  0
   -1.1322    1.2533    1.2743 H   0  0  0  0  0  0  0  0  0  0  0  0
  6  5  1  0  0  0  0
  5  4  1  0  0  0  0
  4  3  1  0  0  0  0
  3  2  1  0  0  0  0
  2  1  1  0  0  0  0
  1  6  1  0  0  0  0
  4  7  1  0  0  0  0
  4  8  1  0  0  0  0
  5  9  1  0  0  0  0
  5 10  1  0  0  0  0
  1 11  1  0  0  0  0
  1 12  1  0  0  0  0
  2 13  1  0  0  0  0
  2 14  1  0  0  0  0
  3 15  1  0  0  0  0
  3 16  1  0  0  0  0
M  END
$$$$
