M0001
  Spartan 06051223293D

 16 16  0  0  0  0  0  0  0  0999 V2000
    1.3910    0.0210   -0.0020 C   0  0  0  0  0  0  0  0  0  0  0  0
    0.6320    1.1750    0.2270 C   0  0  0  0  0  0  0  0  0  0  0  0
   -0.6510    1.1190   -0.3290 C   0  0  0  0  0  0  0  0  0  0  0  0
   -1.3520    0.0440    0.2310 C   0  0  0  0  0  0  0  0  0  0  0  0
   -0.7080   -1.1760   -0.0050 C   0  0  0  0  0  0  0  0  0  0  0  0
    0.6870   -1.1830   -0.1210 O   0  0  0  0  0  0  0  0  0  0  0  0
   -2.3550    0.0067   -0.2092 H   0  0  0  0  0  0  0  0  0  0  0  0
   -1.4334    0.1987    1.3130 H   0  0  0  0  0  0  0  0  0  0  0  0
   -0.9672   -1.8444    0.8240 H   0  0  0  0  0  0  0  0  0  0  0  0
   -1.1125   -1.5799   -0.9401 H   0  0  0  0  0  0  0  0  0  0  0  0
    2.0924   -0.0860    0.8334 H   0  0  0  0  0  0  0  0  0  0  0  0
    1.9509    0.1713   -0.9322 H   0  0  0  0  0  0  0  0  0  0  0  0
    0.5351    1.3173    1.3094 H   0  0  0  0  0  0  0  0  0  0  0  0
    1.1615    2.0304   -0.2079 H   0  0  0  0  0  0  0  0  0  0  0  0
   -1.1831    2.0534   -0.1166 H   0  0  0  0  0  0  0  0  0  0  0  0
   -0.5742    0.9807   -1.4135 H   0  0  0  0  0  0  0  0  0  0  0  0
  4  5  1  0  0  0  0
  5  6  1  0  0  0  0
  6  1  1  0  0  0  0
  1  2  1  0  0  0  0
  2  3  1  0  0  0  0
  3  4  1  0  0  0  0
  4  7  1  0  0  0  0
  4  8  1  0  0  0  0
  5  9  1  0  0  0  0
  5 10  1  0  0  0  0
  1 11  1  0  0  0  0
  1 12  1  0  0  0  0
  2 13  1  0  0  0  0
  2 14  1  0  0  0  0
  3 15  1  0  0  0  0
  3 16  1  0  0  0  0
M  END
$$$$
